12

C        0.00000000    0.00000000    0.00000000
C        1.40000000    0.00000000    0.00000000
C        2.10000000    1.21243557    0.00000000
C        1.40000000    2.42487113    0.00000000
C        0.00000000    2.42487113    0.00000000
C       -0.70000000    1.21243557    0.00000000
Mn      -0.75500000   -1.30769836   -0.00000000
Mn       2.15500000    3.73256949    0.00000000
H       -0.54000000    3.36017857    0.00000000
H       -1.78000000    1.21243557    0.00000000
H        1.94000000   -0.93530744    0.00000000
H        3.18000000    1.21243557    0.00000000